%chk=C:\G09W\Midterm1\4BAopt.chk
# opt pm6 geom=connectivity

Title Card Required

0 1
 C                  1.61920453   -1.60654905    0.00256586
 C                  2.38665845   -2.94169462    0.00345293
 H                  1.84805942   -3.86625456    0.00345027
 C                  3.74183489   -2.94964782    0.00423691
 O                  4.46900432   -1.71833770    0.00420851
 H                  5.41115895   -1.90257721    0.00488492
 O                  2.25263727   -0.51919743    0.00256899
 C                  0.07920479   -1.60666108    0.00167800
 H                 -0.27792861   -2.11080856    0.87528607
 H                 -0.27753470   -0.59788129    0.00114722
 H                 -0.27692170   -2.11137124   -0.87201621
 C                  4.50130909   -4.28934862    0.00507446
 C                  5.89642614   -4.30026669    0.00588236
 C                  3.79449507   -5.49183025    0.00513659
 C                  6.58449132   -5.51343939    0.00607029
 H                  6.45337194   -3.35208291    0.00505591
 C                  4.48261911   -6.70545860    0.00632048
 H                  2.69492338   -5.48340813    0.00467981
 C                  5.87740083   -6.71645196    0.00664917
 H                  7.68413720   -5.52212501    0.00607307
 H                  3.92506135   -7.65340552    0.00678461
 H                  6.42013280   -7.67287149    0.00685649

 1 2 1.0 7 2.0 8 1.0
 2 3 1.0 4 2.0
 3
 4 5 1.0 12 1.0
 5 6 1.0
 6
 7
 8 9 1.0 10 1.0 11 1.0
 9
 10
 11
 12 13 1.5 14 1.5
 13 15 1.5 16 1.0
 14 17 1.5 18 1.0
 15 19 1.5 20 1.0
 16
 17 19 1.5 21 1.0
 18
 19 22 1.0
 20
 21
 22

