%chk=C:\G09W\Midterm1\DMHDE1opt2222.chk
# opt hf/6-311g geom=connectivity

Title Card Required

0 1
 C                 -3.35325235    1.03369860    0.02420074
 H                 -3.26877019    1.66056409    0.91857231
 H                 -3.30965440    1.69049925   -0.85148977
 H                 -4.34904043    0.56863207    0.03881130
 C                 -2.27278130   -0.02234394   -0.01928470
 C                 -0.89819496    0.50223606   -0.02500174
 H                 -0.80396896    1.58522143   -0.03831978
 C                  0.20925856   -0.27100455   -0.01630489
 O                 -2.56042924   -1.20075106   -0.04904141
 O                  0.02609785   -1.62103880    0.02778768
 H                  0.88441869   -2.12907798    0.00429748
 C                  1.66449003    0.22279875   -0.00320302
 C                  1.76107289    1.67773043   -0.47976550
 H                  1.33231617    1.80500633   -1.48134851
 H                  1.23586366    2.36472297    0.19463649
 H                  2.80480665    2.00994680   -0.52673053
 C                  2.50476802   -0.67009670   -0.93362253
 H                  3.56525385   -0.39415735   -0.89451162
 H                  2.43896819   -1.73219727   -0.66280990
 H                  2.18451252   -0.57431560   -1.97909699
 C                  2.16378219    0.10628181    1.44666643
 H                  3.20310736    0.44198134    1.53717166
 H                  1.56352323    0.72370481    2.12748417
 H                  2.11845631   -0.92201485    1.82125474

 1 2 1.0 3 1.0 4 1.0 5 1.0
 2
 3
 4
 5 6 1.0 9 2.0
 6 7 1.0 8 2.0
 7
 8 10 1.0 12 1.0
 9
 10 11 1.0
 11
 12 13 1.0 17 1.0 21 1.0
 13 14 1.0 15 1.0 16 1.0
 14
 15
 16
 17 18 1.0 19 1.0 20 1.0
 18
 19
 20
 21 22 1.0 23 1.0 24 1.0
 22
 23
 24

