%chk=C:\G09W\Midterm1\DMHDE3opt.chk
# opt hf/6-311g geom=connectivity

Title Card Required

0 1
 C                 -3.79934342    0.47446865   -2.32215678
 C                 -2.51424670    0.90722314   -1.64679789
 H                 -2.06163071    0.28256266   -0.91785881
 O                 -4.26920414    1.16661798   -3.29726773
 O                 -2.85528062    3.29758313   -1.83429354
 H                 -3.61934260    3.14229570   -2.40757424
 ?s                -0.42190719    1.81489116   -0.28654271
 C                 -4.57316100   -0.78260721   -1.87796161
 C                 -6.08192842   -0.42538822   -1.74797507
 H                 -6.25072076   -0.01485499   -0.75562948
 H                 -6.33248583    0.33580720   -2.46593467
 H                 -6.67718960   -1.27691422   -1.88705495
 C                 -4.41491395   -1.88657352   -2.93647280
 H                 -3.40251843   -2.11623705   -3.07192571
 H                 -4.93993871   -2.77958599   -2.57252265
 H                 -4.87546035   -1.59017760   -3.85089899
 C                 -4.05019053   -1.26509788   -0.52672978
 H                 -2.99973507   -1.02221943   -0.45874352
 H                 -4.56999438   -0.76394697    0.26424649
 H                 -4.17726740   -2.31383447   -0.44197389
 ?s                -0.37206902    2.57974534   -1.23072787
 C                 -2.00530940    2.15053085   -1.88843119
 C                 -0.91651840    2.64226007   -0.91666139
 H                 -0.95809729    2.06844387   -0.01449391
 H                  0.04557063    2.52488964   -1.36999225
 H                 -1.08053124    3.67510262   -0.69030759

 1 2 1.0 4 2.0 8 1.0
 2 3 1.0 22 2.0
 3
 4
 5 6 1.0 22 1.0
 6
 7
 8 9 1.0 13 1.0 17 1.0
 9 10 1.0 11 1.0 12 1.0
 10
 11
 12
 13 14 1.0 15 1.0 16 1.0
 14
 15
 16
 17 18 1.0 19 1.0 20 1.0
 18
 19
 20
 21
 22 23 1.0
 23 24 1.0 25 1.0 26 1.0
 24
 25
 26

