%chk=C:\G09W\Midterm1\DMHDE1opt.chk
# opt pm6 geom=connectivity

Title Card Required

0 1
 C                 -4.53539794    0.28761062    0.00000000
 H                 -4.17874351   -0.72119939    0.00000000
 H                 -4.17872509    0.79200881    0.87365150
 H                 -5.60539794    0.28762380    0.00000000
 C                 -4.02205572    1.01356689   -1.25740497
 C                 -2.53132011    0.93277276   -1.63526694
 H                 -2.01187656    0.00038620   -1.55954568
 C                 -1.87511182    2.03852754   -2.06336048
 O                 -4.81654477    1.67257062   -1.97717701
 O                 -2.20575313    2.61843209   -3.32798969
 H                 -1.41739086    2.99910760   -3.72190731
 C                 -0.77456747    2.67269795   -1.19259645
 C                 -0.75588997    1.99096426    0.18816071
 H                 -1.67189517    2.19843825    0.70079022
 H                 -0.64902652    0.93375240    0.06252913
 H                  0.06622902    2.36703024    0.76051964
 C                 -1.05988149    4.17604877   -1.01901009
 H                 -0.29900320    4.61529119   -0.40824800
 H                 -1.06596938    4.65096496   -1.97782058
 H                 -2.01290951    4.30642567   -0.55035301
 C                  0.59261295    2.48525092   -1.87617624
 H                  1.37221672    2.75237720   -1.19370902
 H                  0.70851965    1.46216994   -2.16733072
 H                  0.64702611    3.11096655   -2.74244361

 1 2 1.0 3 1.0 4 1.0 5 1.0
 2
 3
 4
 5 6 1.0 9 2.0
 6 7 1.0 8 2.0
 7
 8 10 1.0 12 1.0
 9
 10 11 1.0
 11
 12 13 1.0 17 1.0 21 1.0
 13 14 1.0 15 1.0 16 1.0
 14
 15
 16
 17 18 1.0 19 1.0 20 1.0
 18
 19
 20
 21 22 1.0 23 1.0 24 1.0
 22
 23
 24

