%chk=C:\G09W\Midterm1\E13energy.chk
# hf/6-311g geom=connectivity

Title Card Required

0 1
 C                  0.58899593    2.06200198    0.20199547
 C                  1.95458178    1.77692317    0.18258500
 C                  2.88286239    2.81505232    0.10639619
 C                  2.44565013    4.13894659    0.04837949
 C                  1.08036441    4.42385624    0.06731137
 C                  0.15195438    3.38534602    0.14452050
 H                 -0.14269882    1.24340388    0.26251645
 H                  2.29883379    0.73355987    0.22868658
 H                  3.95926376    2.59046073    0.09172522
 H                  0.73547325    5.46713669    0.02159252
 H                 -0.92430784    3.61020235    0.15962920
 C                  3.47088931    5.28498086   -0.03582302
 O                  3.03484271    6.64146951    0.08542836
 H                  2.08369997    6.66206004    0.21389434
 C                  4.78491947    5.01236943   -0.22443584
 H                  5.29438726    5.93336742   -0.41706311
 C                  5.82486361    3.87732349   -0.26670766
 O                  7.01828726    4.12293935   -0.58132394
 C                  5.40287590    2.43675433    0.07722088
 C                  4.30697260    1.97537105   -0.90141154
 H                  4.66627821    2.06141954   -1.90560034
 H                  4.05450369    0.95545446   -0.69910086
 H                  3.43869688    2.58866781   -0.77949202
 C                  6.62186936    1.50296724   -0.03981179
 H                  6.99832259    1.53166597   -1.04099077
 H                  7.38475067    1.82575637    0.63747639
 H                  6.32949740    0.50267951    0.20276415
 C                  4.85779828    2.39135610    1.51681436
 H                  4.60987348    1.38240972    1.77266683
 H                  5.60267153    2.75777335    2.19194565
 H                  3.98212721    3.00234237    1.58606721

 1 2 1.5 6 1.5 7 1.0
 2 3 1.5 8 1.0
 3 4 1.5 9 1.0
 4 5 1.5 12 1.0
 5 6 1.5 10 1.0
 6 11 1.0
 7
 8
 9
 10
 11
 12 13 1.0 15 2.0
 13 14 1.0
 14
 15 16 1.0 17 1.0
 16
 17 18 2.0 19 1.0
 18
 19 20 1.0 24 1.0 28 1.0
 20 21 1.0 22 1.0 23 1.0
 21
 22
 23
 24 25 1.0 26 1.0 27 1.0
 25
 26
 27
 28 29 1.0 30 1.0 31 1.0
 29
 30
 31

