%chk=C:\G09W\Midterm1\E1freqt.chk
# freq=roa hf/6-311g geom=connectivity

Title Card Required

0 1
 C                 -3.37979343    1.68361177    0.36372705
 C                 -2.12567647    1.09462514    0.29139209
 C                 -1.99432957   -0.24832599   -0.04715576
 C                 -3.14154371   -0.99479936   -0.30801242
 C                 -4.39232952   -0.40685779   -0.24472763
 C                 -4.51369040    0.93535195    0.09095131
 H                 -3.46873858    2.71578975    0.63380275
 H                 -1.25957164    1.67947688    0.51918366
 H                 -3.03399595   -2.02927319   -0.55320927
 H                 -5.26644598   -0.98886978   -0.45246659
 H                 -5.48173617    1.39033297    0.14254300
 C                 -0.66819174   -0.93579089   -0.11499448
 C                  0.53030789   -0.09618593   -0.28687814
 H                  0.38132965    0.81350248   -0.82109698
 O                 -0.62941299   -2.15769559   -0.07925678
 O                  1.96156122   -1.50683176    0.88173848
 H                  2.85812037   -1.69860624    1.10493931
 C                  1.76097624   -0.38389891    0.13055588
 C                  3.00657993    0.46331071   -0.11694475
 C                  4.04184013   -0.39219135   -0.88433364
 H                  4.35921441   -1.26445074   -0.32766736
 H                  3.63576332   -0.73136332   -1.82699304
 H                  4.92517189    0.19831286   -1.08554130
 C                  2.70280689    1.71563278   -0.95058605
 H                  3.61779791    2.27011889   -1.10816684
 H                  2.29917399    1.46113950   -1.92036952
 H                  2.00427254    2.37035733   -0.44841816
 C                  3.59502719    0.90742435    1.24153427
 H                  3.88791248    0.07076727    1.86157910
 H                  4.47603004    1.51313090    1.07793576
 H                  2.87661524    1.49441442    1.79692545

 1 2 1.5 6 1.5 7 1.0
 2 3 1.5 8 1.0
 3 4 1.5 12 1.0
 4 5 1.5 9 1.0
 5 6 1.5 10 1.0
 6 11 1.0
 7
 8
 9
 10
 11
 12 13 1.0 15 2.0
 13 14 1.0 18 2.0
 14
 15
 16 17 1.0 18 1.0
 17
 18 19 1.0
 19 20 1.0 24 1.0 28 1.0
 20 21 1.0 22 1.0 23 1.0
 21
 22
 23
 24 25 1.0 26 1.0 27 1.0
 25
 26
 27
 28 29 1.0 30 1.0 31 1.0
 29
 30
 31

