%chk=C:\G09W\Midterm1\E2energy.chk
# hf/6-311g geom=connectivity

Title Card Required

0 2
 C                  2.47451999   -1.53784040   -0.30731163
 C                  3.86521178   -1.68794785   -0.39313739
 C                  4.69466383   -0.55862458   -0.36946899
 C                  4.13342422    0.72080600   -0.25997265
 C                  2.74273246    0.87091342   -0.17414644
 C                  1.91328045   -0.25840990   -0.19781398
 H                  1.84121489   -2.40010374   -0.32538368
 H                  4.29373070   -2.66482151   -0.47673986
 H                  5.75648796   -0.67323503   -0.43499747
 H                  4.76672926    1.58306940   -0.24190160
 H                  0.85145660   -0.14379976   -0.13228058
 C                  2.12598554    2.27688119   -0.05382240
 O                  2.97236502    3.42925206   -0.02967407
 H                  3.76724816    3.25318998   -0.53836154
 C                  0.78114093    2.42203981    0.02917755
 H                  0.14783589    1.55977642    0.01110644
 C                  0.16439421    3.82800737    0.14950507
 O                 -1.08439019    3.96279765    0.22657428
 H                 -1.46885556    4.83924482    0.30158586
 C                  1.07588014    5.06902178    0.17551712
 C                  2.35100681    4.78659123   -0.64050064
 H                  2.08452222    4.56092039   -1.65191481
 H                  2.98431197    5.64885449   -0.62242733
 H                  2.87015086    3.95376459   -0.21413314
 C                  1.45941871    5.39381906    1.63119734
 H                  2.09272387    6.25608231    1.64927065
 H                  0.57345408    5.59005327    2.19817072
 H                  1.97856276    4.56099242    2.05756483
 C                  0.32870085    6.26766947   -0.43813329
 H                  0.06221627    6.04199863   -1.44954747
 H                 -0.55726378    6.46390368    0.12884009
 H                  0.96200601    7.12993273   -0.42005998

 1 2 1.5 6 1.5 7 1.0
 2 3 1.5 8 1.0
 3 4 1.5 9 1.0
 4 5 1.5 10 1.0
 5 6 1.5 12 1.0
 6 11 1.0
 7
 8
 9
 10
 11
 12 13 1.0 15 2.0
 13 14 1.0
 14
 15 16 1.0 17 1.0
 16
 17 18 2.0 20 1.0
 18 19 1.0
 19
 20 21 1.0 25 1.0 29 1.0
 21 22 1.0 23 1.0 24 1.0
 22
 23
 24
 25 26 1.0 27 1.0 28 1.0
 26
 27
 28
 29 30 1.0 31 1.0 32 1.0
 30
 31
 32

