%chk=C:\G09W\Midterm1\E2freq.chk
# freq hf/6-311g geom=connectivity

Title Card Required

0 1
 C                  2.47451999   -1.53784040   -0.30731163
 C                  3.86521178   -1.68794785   -0.39313739
 C                  4.69466383   -0.55862458   -0.36946899
 C                  4.13342422    0.72080600   -0.25997265
 C                  2.74273246    0.87091342   -0.17414644
 C                  1.91328045   -0.25840990   -0.19781398
 H                  1.84121489   -2.40010374   -0.32538368
 H                  4.29373070   -2.66482151   -0.47673986
 H                  5.75648796   -0.67323503   -0.43499747
 H                  4.76672926    1.58306940   -0.24190160
 H                  0.85145660   -0.14379976   -0.13228058
 C                  2.12598554    2.27688119   -0.05382240
 O                  2.97236502    3.42925206   -0.02967407
 H                  3.76724816    3.25318998   -0.53836154
 C                  0.78114093    2.42203981    0.02917755
 H                  0.14783589    1.55977642    0.01110644
 C                  0.16439421    3.82800737    0.14950507
 O                  0.90728550    4.82767775    0.32934450
 C                 -1.36148520    4.01060208    0.04974938
 C                 -2.02321756    3.52130391    1.35140125
 H                 -1.64921625    4.08972605    2.17718529
 H                 -3.08340650    3.64817167    1.28209048
 H                 -1.79680500    2.48604710    1.49932245
 C                 -1.89976745    3.19249918   -1.13876224
 H                 -2.95995639    3.31936693   -1.20807301
 H                 -1.43999237    3.53246609   -2.04315672
 H                 -1.67335489    2.15724237   -0.99084103
 C                 -1.68735001    5.50059787   -0.16314657
 H                 -1.31334871    6.06902001    0.66263748
 H                 -1.22757492    5.84056478   -1.06754105
 H                 -2.74753895    5.62746563   -0.23245735

 1 2 1.5 6 1.5 7 1.0
 2 3 1.5 8 1.0
 3 4 1.5 9 1.0
 4 5 1.5 10 1.0
 5 6 1.5 12 1.0
 6 11 1.0
 7
 8
 9
 10
 11
 12 13 1.0 15 2.0
 13 14 1.0
 14
 15 16 1.0 17 1.0
 16
 17 18 2.0 19 1.0
 18
 19 20 1.0 24 1.0 28 1.0
 20 21 1.0 22 1.0 23 1.0
 21
 22
 23
 24 25 1.0 26 1.0 27 1.0
 25
 26
 27
 28 29 1.0 30 1.0 31 1.0
 29
 30
 31

