%chk=C:\G09W\Midterm1\E3energy.chk
# hf/6-311g geom=connectivity

Title Card Required

0 1
 C                  5.83829048   -1.88823170    0.00167800
 C                  7.23345048   -1.88823170    0.00167800
 C                  7.93098848   -0.68048070    0.00167800
 C                  7.23333448    0.52802830    0.00047900
 C                  5.83850948    0.52795030    0.00000000
 C                  5.14090848   -0.68025570    0.00099600
 H                  5.28853148   -2.84054870    0.00212800
 H                  7.78295848   -2.84074470    0.00299300
 H                  9.03066848   -0.68040070    0.00231200
 H                  7.78353448    1.48017130    0.00042000
 H                  5.28838748    1.48023130   -0.00095300
 C                  3.60090852   -0.67999941    0.00074391
 O                  2.88815616   -1.91971061    0.00121011
 H                  3.51294943   -2.64856802    0.00170300
 C                  2.91886010    0.49105847    0.00008177
 H                  3.12203348    1.02265329    0.90618747
 C                  1.40886419    0.20560041   -0.10004835
 O                  0.99118117   -0.97964439   -0.16567036
 C                  0.40657872    1.37462914   -0.11994009
 C                 -0.08796173    1.65122302    1.31202554
 H                  0.46076326    1.04503412    2.00219646
 H                  0.06136964    2.68422094    1.54764271
 H                 -1.12962729    1.41659278    1.38117420
 C                  1.09718649    2.63349022   -0.67665337
 H                  0.76404813    3.49290012   -0.13320747
 H                  2.15744925    2.53435601   -0.57217710
 H                  0.84989974    2.74787736   -1.71138273
 C                 -0.79177368    1.00820238   -1.01508418
 H                 -0.46074159    0.89754670   -2.02655493
 H                 -1.22087770    0.08796670   -0.67754006
 H                 -1.52632290    1.78449867   -0.96310805

 1 2 1.5 6 1.5 7 1.0
 2 3 1.5 8 1.0
 3 4 1.5 9 1.0
 4 5 1.5 10 1.0
 5 6 1.5 11 1.0
 6 12 1.0
 7
 8
 9
 10
 11
 12 13 1.0 15 2.0
 13 14 1.0
 14
 15 16 1.0 17 1.0
 16
 17 18 2.0 19 1.0
 18
 19 20 1.0 24 1.0 28 1.0
 20 21 1.0 22 1.0 23 1.0
 21
 22
 23
 24 25 1.0 26 1.0 27 1.0
 25
 26
 27
 28 29 1.0 30 1.0 31 1.0
 29
 30
 31

