%chk=C:\G09W\Midterm1\E9energyt.chk
# hf/3-21g geom=connectivity

Title Card Required

0 1
 C                 -5.54143797    1.60101059   -3.75608616
 C                 -4.14628663    1.59884566   -3.75167087
 C                 -3.45257515    1.59776997   -2.54171841
 C                 -4.15404754    1.60005828   -1.33542334
 C                 -5.54886288    1.60270169   -1.33991556
 C                 -6.24263747    1.60278147   -2.55032322
 H                 -6.08818044    1.60140838   -4.71013822
 H                 -3.59376966    1.59667267   -4.70244006
 H                 -2.35290322    1.59542955   -2.53815823
 H                 -6.10199368    1.60451363   -0.38938031
 H                 -7.34223494    1.60466778   -2.55362016
 C                 -3.38776791    1.59895269    0.00039638
 O                 -4.01568495    1.60100668    1.09094052
 C                 -1.84777269    1.59532100    0.00163836
 H                 -1.31386358    1.59357452   -0.92563614
 C                 -1.16647431    1.59432953    1.17313252
 C                 -1.92696142    1.59682681    2.51225653
 C                 -2.81468160    0.34155260    2.60079773
 H                 -2.46010506   -0.29128701    3.38736591
 H                 -3.82410120    0.63220737    2.80449329
 H                 -2.77663087   -0.18843323    1.67205279
 C                 -0.91792153    1.59506987    3.67562897
 H                 -0.30678339    2.47154329    3.61902055
 H                 -1.44630477    1.58816756    4.60603936
 H                 -0.29959056    0.72427798    3.61014384
 C                 -2.80876785    2.85635524    2.59946638
 H                 -2.77980739    3.37739783    1.66534866
 H                 -3.81677956    2.57160000    2.81793115
 H                 -2.44240001    3.49519441    3.37571319
 O                  0.26350285    1.59095283    1.16578957
 H                  0.58372791    2.39498586    0.75035390

 1 2 1.5 6 1.5 7 1.0
 2 3 1.5 8 1.0
 3 4 1.5 9 1.0
 4 5 1.5 12 1.0
 5 6 1.5 10 1.0
 6 11 1.0
 7
 8
 9
 10
 11
 12 13 2.0 14 1.0
 13
 14 15 1.0 16 2.0
 15
 16 17 1.0 30 1.0
 17 18 1.0 22 1.0 26 1.0
 18 19 1.0 20 1.0 21 1.0
 19
 20
 21
 22 23 1.0 24 1.0 25 1.0
 23
 24
 25
 26 27 1.0 28 1.0 29 1.0
 27
 28
 29
 30 31 1.0
 31

