%chk=C:\G09W\Midterm1\K6opt.chk
# opt hf/6-311g geom=connectivity

Title Card Required

0 1
 C                 -3.76128070   -2.48255368    0.00167800
 C                 -2.36612070   -2.48255368    0.00167800
 C                 -1.66858270   -1.27480268    0.00167800
 C                 -2.36623670   -0.06629368    0.00047900
 C                 -3.76106170   -0.06637168    0.00000000
 C                 -4.45866270   -1.27457768    0.00099600
 H                 -4.31103970   -3.43487068    0.00212800
 H                 -1.81661270   -3.43506668    0.00299300
 H                 -1.81603670    0.88584932    0.00042000
 H                 -4.31118370    0.88590932   -0.00095300
 H                 -5.55826670   -1.27439468    0.00081600
 C                 -0.12858296   -1.27469065    0.00256586
 C                  0.63887095   -2.60983622    0.00345293
 H                  0.54457562   -3.07606576   -0.95500333
 C                  2.12652292   -2.34661650    0.30212835
 O                  2.89783023   -3.30400744    0.57056491
 C                  2.67214003   -0.90682278    0.27219477
 C                  1.50569117    0.08029097    0.08087431
 H                  1.87472567    1.08320451    0.13452094
 H                  1.05362973   -0.08275487   -0.87513642
 H                  0.77826371   -0.07372529    0.85030804
 C                  3.66646389   -0.75882156   -0.89443101
 H                  3.65992876   -1.65166266   -1.48408520
 H                  3.38033107    0.07301483   -1.50359127
 H                  4.64999296   -0.59498488   -0.50619383
 C                  3.38988193   -0.60214464    1.60020749
 H                  2.70580948   -0.73031691    2.41292931
 H                  4.21623360   -1.27112193    1.72067450
 H                  3.74629330    0.40669683    1.58972840
 O                  0.50484977   -0.18733903    0.00256899
 H                  0.23276906   -3.25415889    0.75500436

 1 2 1.5 6 1.5 7 1.0
 2 3 1.5 8 1.0
 3 4 1.5 12 1.0
 4 5 1.5 9 1.0
 5 6 1.5 10 1.0
 6 11 1.0
 7
 8
 9
 10
 11
 12 13 1.0 30 2.0
 13 14 1.0 15 1.0 31 1.0
 14
 15 16 2.0 17 1.0
 16
 17 18 1.0 22 1.0 26 1.0
 18 19 1.0 20 1.0 21 1.0
 19
 20
 21
 22 23 1.0 24 1.0 25 1.0
 23
 24
 25
 26 27 1.0 28 1.0 29 1.0
 27
 28
 29
 30
 31

